*SPEF "ieee 1481-1999"
*DESIGN "RAM16"
*DATE "11:11:11 Fri 11 11, 1111"
*VENDOR "OpenRCX"
*PROGRAM "Parallel Extraction"
*VERSION "1.0"
*DESIGN_FLOW "NAME_SCOPE LOCAL" "PIN_CAP NONE"
*DIVIDER /
*DELIMITER :
*BUS_DELIMITER []
*T_UNIT 1 NS
*C_UNIT 1 PF
*R_UNIT 1 OHM
*L_UNIT 1 HENRY

*NAME_MAP
*1 A0[0]
*2 A0[1]
*3 A0[2]
*4 A0[3]
*5 CLK
*6 Di0[0]
*7 Di0[1]
*8 Di0[2]
*9 Di0[3]
*10 Di0[4]
*11 Di0[5]
*12 Di0[6]
*13 Di0[7]
*14 Do0_REG\.Do\[0\]
*15 Do0_REG\.Do\[1\]
*16 Do0_REG\.Do\[2\]
*17 Do0_REG\.Do\[3\]
*18 Do0_REG\.Do\[4\]
*19 Do0_REG\.Do\[5\]
*20 Do0_REG\.Do\[6\]
*21 Do0_REG\.Do\[7\]
*22 EN0
*25 WE0
*26 A0BUF\[0\]\.X
*27 A0BUF\[1\]\.X
*28 A0BUF\[2\]\.X
*29 A0BUF\[3\]\.X
*30 BYTE\[0\]\.FLOATBUF0\[0\]\.A
*31 BYTE\[0\]\.FLOATBUF0\[0\]\.TE_B
*32 BYTE\[0\]\.FLOATBUF0\[0\]\.Z
*33 BYTE\[0\]\.FLOATBUF0\[1\]\.Z
*34 BYTE\[0\]\.FLOATBUF0\[2\]\.Z
*35 BYTE\[0\]\.FLOATBUF0\[3\]\.Z
*36 BYTE\[0\]\.FLOATBUF0\[4\]\.Z
*37 BYTE\[0\]\.FLOATBUF0\[5\]\.Z
*38 BYTE\[0\]\.FLOATBUF0\[6\]\.Z
*39 BYTE\[0\]\.FLOATBUF0\[7\]\.Z
*40 CLKBUF\.X
*41 DEC0\.EN
*42 DEC0\.SEL\[0\]
*43 DEC0\.SEL\[1\]
*44 Do0_REG\.CLKBUF
*45 Do0_REG\.CLK_buf
*46 SLICE\[0\]\.RAM8\.CLKBUF\.X
*47 SLICE\[0\]\.RAM8\.DEC0\.A_buf\[0\]
*48 SLICE\[0\]\.RAM8\.DEC0\.A_buf\[1\]
*49 SLICE\[0\]\.RAM8\.DEC0\.A_buf\[2\]
*50 SLICE\[0\]\.RAM8\.DEC0\.EN_buf
*51 SLICE\[0\]\.RAM8\.DEC0\.SEL\[0\]
*52 SLICE\[0\]\.RAM8\.DEC0\.SEL\[1\]
*53 SLICE\[0\]\.RAM8\.DEC0\.SEL\[2\]
*54 SLICE\[0\]\.RAM8\.DEC0\.SEL\[3\]
*55 SLICE\[0\]\.RAM8\.DEC0\.SEL\[4\]
*56 SLICE\[0\]\.RAM8\.DEC0\.SEL\[5\]
*57 SLICE\[0\]\.RAM8\.DEC0\.SEL\[6\]
*58 SLICE\[0\]\.RAM8\.DEC0\.SEL\[7\]
*59 SLICE\[0\]\.RAM8\.WE0
*60 SLICE\[0\]\.RAM8\.WE0_buf
*61 SLICE\[0\]\.RAM8\.WORD\[0\]\.W\.BYTE\[0\]\.B\.CLK
*62 SLICE\[0\]\.RAM8\.WORD\[0\]\.W\.BYTE\[0\]\.B\.CLK_B
*63 SLICE\[0\]\.RAM8\.WORD\[0\]\.W\.BYTE\[0\]\.B\.GCLK
*64 SLICE\[0\]\.RAM8\.WORD\[0\]\.W\.BYTE\[0\]\.B\.Q_WIRE\[0\]
*65 SLICE\[0\]\.RAM8\.WORD\[0\]\.W\.BYTE\[0\]\.B\.Q_WIRE\[1\]
*66 SLICE\[0\]\.RAM8\.WORD\[0\]\.W\.BYTE\[0\]\.B\.Q_WIRE\[2\]
*67 SLICE\[0\]\.RAM8\.WORD\[0\]\.W\.BYTE\[0\]\.B\.Q_WIRE\[3\]
*68 SLICE\[0\]\.RAM8\.WORD\[0\]\.W\.BYTE\[0\]\.B\.Q_WIRE\[4\]
*69 SLICE\[0\]\.RAM8\.WORD\[0\]\.W\.BYTE\[0\]\.B\.Q_WIRE\[5\]
*70 SLICE\[0\]\.RAM8\.WORD\[0\]\.W\.BYTE\[0\]\.B\.Q_WIRE\[6\]
*71 SLICE\[0\]\.RAM8\.WORD\[0\]\.W\.BYTE\[0\]\.B\.Q_WIRE\[7\]
*72 SLICE\[0\]\.RAM8\.WORD\[0\]\.W\.BYTE\[0\]\.B\.SEL0
*73 SLICE\[0\]\.RAM8\.WORD\[0\]\.W\.BYTE\[0\]\.B\.SEL0_B
*74 SLICE\[0\]\.RAM8\.WORD\[0\]\.W\.BYTE\[0\]\.B\.WE0_WIRE
*75 SLICE\[0\]\.RAM8\.WORD\[1\]\.W\.BYTE\[0\]\.B\.CLK
*76 SLICE\[0\]\.RAM8\.WORD\[1\]\.W\.BYTE\[0\]\.B\.CLK_B
*77 SLICE\[0\]\.RAM8\.WORD\[1\]\.W\.BYTE\[0\]\.B\.GCLK
*78 SLICE\[0\]\.RAM8\.WORD\[1\]\.W\.BYTE\[0\]\.B\.Q_WIRE\[0\]
*79 SLICE\[0\]\.RAM8\.WORD\[1\]\.W\.BYTE\[0\]\.B\.Q_WIRE\[1\]
*80 SLICE\[0\]\.RAM8\.WORD\[1\]\.W\.BYTE\[0\]\.B\.Q_WIRE\[2\]
*81 SLICE\[0\]\.RAM8\.WORD\[1\]\.W\.BYTE\[0\]\.B\.Q_WIRE\[3\]
*82 SLICE\[0\]\.RAM8\.WORD\[1\]\.W\.BYTE\[0\]\.B\.Q_WIRE\[4\]
*83 SLICE\[0\]\.RAM8\.WORD\[1\]\.W\.BYTE\[0\]\.B\.Q_WIRE\[5\]
*84 SLICE\[0\]\.RAM8\.WORD\[1\]\.W\.BYTE\[0\]\.B\.Q_WIRE\[6\]
*85 SLICE\[0\]\.RAM8\.WORD\[1\]\.W\.BYTE\[0\]\.B\.Q_WIRE\[7\]
*86 SLICE\[0\]\.RAM8\.WORD\[1\]\.W\.BYTE\[0\]\.B\.SEL0
*87 SLICE\[0\]\.RAM8\.WORD\[1\]\.W\.BYTE\[0\]\.B\.SEL0_B
*88 SLICE\[0\]\.RAM8\.WORD\[1\]\.W\.BYTE\[0\]\.B\.WE0_WIRE
*89 SLICE\[0\]\.RAM8\.WORD\[2\]\.W\.BYTE\[0\]\.B\.CLK
*90 SLICE\[0\]\.RAM8\.WORD\[2\]\.W\.BYTE\[0\]\.B\.CLK_B
*91 SLICE\[0\]\.RAM8\.WORD\[2\]\.W\.BYTE\[0\]\.B\.GCLK
*92 SLICE\[0\]\.RAM8\.WORD\[2\]\.W\.BYTE\[0\]\.B\.Q_WIRE\[0\]
*93 SLICE\[0\]\.RAM8\.WORD\[2\]\.W\.BYTE\[0\]\.B\.Q_WIRE\[1\]
*94 SLICE\[0\]\.RAM8\.WORD\[2\]\.W\.BYTE\[0\]\.B\.Q_WIRE\[2\]
*95 SLICE\[0\]\.RAM8\.WORD\[2\]\.W\.BYTE\[0\]\.B\.Q_WIRE\[3\]
*96 SLICE\[0\]\.RAM8\.WORD\[2\]\.W\.BYTE\[0\]\.B\.Q_WIRE\[4\]
*97 SLICE\[0\]\.RAM8\.WORD\[2\]\.W\.BYTE\[0\]\.B\.Q_WIRE\[5\]
*98 SLICE\[0\]\.RAM8\.WORD\[2\]\.W\.BYTE\[0\]\.B\.Q_WIRE\[6\]
*99 SLICE\[0\]\.RAM8\.WORD\[2\]\.W\.BYTE\[0\]\.B\.Q_WIRE\[7\]
*100 SLICE\[0\]\.RAM8\.WORD\[2\]\.W\.BYTE\[0\]\.B\.SEL0
*101 SLICE\[0\]\.RAM8\.WORD\[2\]\.W\.BYTE\[0\]\.B\.SEL0_B
*102 SLICE\[0\]\.RAM8\.WORD\[2\]\.W\.BYTE\[0\]\.B\.WE0_WIRE
*103 SLICE\[0\]\.RAM8\.WORD\[3\]\.W\.BYTE\[0\]\.B\.CLK
*104 SLICE\[0\]\.RAM8\.WORD\[3\]\.W\.BYTE\[0\]\.B\.CLK_B
*105 SLICE\[0\]\.RAM8\.WORD\[3\]\.W\.BYTE\[0\]\.B\.GCLK
*106 SLICE\[0\]\.RAM8\.WORD\[3\]\.W\.BYTE\[0\]\.B\.Q_WIRE\[0\]
*107 SLICE\[0\]\.RAM8\.WORD\[3\]\.W\.BYTE\[0\]\.B\.Q_WIRE\[1\]
*108 SLICE\[0\]\.RAM8\.WORD\[3\]\.W\.BYTE\[0\]\.B\.Q_WIRE\[2\]
*109 SLICE\[0\]\.RAM8\.WORD\[3\]\.W\.BYTE\[0\]\.B\.Q_WIRE\[3\]
*110 SLICE\[0\]\.RAM8\.WORD\[3\]\.W\.BYTE\[0\]\.B\.Q_WIRE\[4\]
*111 SLICE\[0\]\.RAM8\.WORD\[3\]\.W\.BYTE\[0\]\.B\.Q_WIRE\[5\]
*112 SLICE\[0\]\.RAM8\.WORD\[3\]\.W\.BYTE\[0\]\.B\.Q_WIRE\[6\]
*113 SLICE\[0\]\.RAM8\.WORD\[3\]\.W\.BYTE\[0\]\.B\.Q_WIRE\[7\]
*114 SLICE\[0\]\.RAM8\.WORD\[3\]\.W\.BYTE\[0\]\.B\.SEL0
*115 SLICE\[0\]\.RAM8\.WORD\[3\]\.W\.BYTE\[0\]\.B\.SEL0_B
*116 SLICE\[0\]\.RAM8\.WORD\[3\]\.W\.BYTE\[0\]\.B\.WE0_WIRE
*117 SLICE\[0\]\.RAM8\.WORD\[4\]\.W\.BYTE\[0\]\.B\.CLK
*118 SLICE\[0\]\.RAM8\.WORD\[4\]\.W\.BYTE\[0\]\.B\.CLK_B
*119 SLICE\[0\]\.RAM8\.WORD\[4\]\.W\.BYTE\[0\]\.B\.GCLK
*120 SLICE\[0\]\.RAM8\.WORD\[4\]\.W\.BYTE\[0\]\.B\.Q_WIRE\[0\]
*121 SLICE\[0\]\.RAM8\.WORD\[4\]\.W\.BYTE\[0\]\.B\.Q_WIRE\[1\]
*122 SLICE\[0\]\.RAM8\.WORD\[4\]\.W\.BYTE\[0\]\.B\.Q_WIRE\[2\]
*123 SLICE\[0\]\.RAM8\.WORD\[4\]\.W\.BYTE\[0\]\.B\.Q_WIRE\[3\]
*124 SLICE\[0\]\.RAM8\.WORD\[4\]\.W\.BYTE\[0\]\.B\.Q_WIRE\[4\]
*125 SLICE\[0\]\.RAM8\.WORD\[4\]\.W\.BYTE\[0\]\.B\.Q_WIRE\[5\]
*126 SLICE\[0\]\.RAM8\.WORD\[4\]\.W\.BYTE\[0\]\.B\.Q_WIRE\[6\]
*127 SLICE\[0\]\.RAM8\.WORD\[4\]\.W\.BYTE\[0\]\.B\.Q_WIRE\[7\]
*128 SLICE\[0\]\.RAM8\.WORD\[4\]\.W\.BYTE\[0\]\.B\.SEL0
*129 SLICE\[0\]\.RAM8\.WORD\[4\]\.W\.BYTE\[0\]\.B\.SEL0_B
*130 SLICE\[0\]\.RAM8\.WORD\[4\]\.W\.BYTE\[0\]\.B\.WE0_WIRE
*131 SLICE\[0\]\.RAM8\.WORD\[5\]\.W\.BYTE\[0\]\.B\.CLK
*132 SLICE\[0\]\.RAM8\.WORD\[5\]\.W\.BYTE\[0\]\.B\.CLK_B
*133 SLICE\[0\]\.RAM8\.WORD\[5\]\.W\.BYTE\[0\]\.B\.GCLK
*134 SLICE\[0\]\.RAM8\.WORD\[5\]\.W\.BYTE\[0\]\.B\.Q_WIRE\[0\]
*135 SLICE\[0\]\.RAM8\.WORD\[5\]\.W\.BYTE\[0\]\.B\.Q_WIRE\[1\]
*136 SLICE\[0\]\.RAM8\.WORD\[5\]\.W\.BYTE\[0\]\.B\.Q_WIRE\[2\]
*137 SLICE\[0\]\.RAM8\.WORD\[5\]\.W\.BYTE\[0\]\.B\.Q_WIRE\[3\]
*138 SLICE\[0\]\.RAM8\.WORD\[5\]\.W\.BYTE\[0\]\.B\.Q_WIRE\[4\]
*139 SLICE\[0\]\.RAM8\.WORD\[5\]\.W\.BYTE\[0\]\.B\.Q_WIRE\[5\]
*140 SLICE\[0\]\.RAM8\.WORD\[5\]\.W\.BYTE\[0\]\.B\.Q_WIRE\[6\]
*141 SLICE\[0\]\.RAM8\.WORD\[5\]\.W\.BYTE\[0\]\.B\.Q_WIRE\[7\]
*142 SLICE\[0\]\.RAM8\.WORD\[5\]\.W\.BYTE\[0\]\.B\.SEL0
*143 SLICE\[0\]\.RAM8\.WORD\[5\]\.W\.BYTE\[0\]\.B\.SEL0_B
*144 SLICE\[0\]\.RAM8\.WORD\[5\]\.W\.BYTE\[0\]\.B\.WE0_WIRE
*145 SLICE\[0\]\.RAM8\.WORD\[6\]\.W\.BYTE\[0\]\.B\.CLK
*146 SLICE\[0\]\.RAM8\.WORD\[6\]\.W\.BYTE\[0\]\.B\.CLK_B
*147 SLICE\[0\]\.RAM8\.WORD\[6\]\.W\.BYTE\[0\]\.B\.GCLK
*148 SLICE\[0\]\.RAM8\.WORD\[6\]\.W\.BYTE\[0\]\.B\.Q_WIRE\[0\]
*149 SLICE\[0\]\.RAM8\.WORD\[6\]\.W\.BYTE\[0\]\.B\.Q_WIRE\[1\]
*150 SLICE\[0\]\.RAM8\.WORD\[6\]\.W\.BYTE\[0\]\.B\.Q_WIRE\[2\]
*151 SLICE\[0\]\.RAM8\.WORD\[6\]\.W\.BYTE\[0\]\.B\.Q_WIRE\[3\]
*152 SLICE\[0\]\.RAM8\.WORD\[6\]\.W\.BYTE\[0\]\.B\.Q_WIRE\[4\]
*153 SLICE\[0\]\.RAM8\.WORD\[6\]\.W\.BYTE\[0\]\.B\.Q_WIRE\[5\]
*154 SLICE\[0\]\.RAM8\.WORD\[6\]\.W\.BYTE\[0\]\.B\.Q_WIRE\[6\]
*155 SLICE\[0\]\.RAM8\.WORD\[6\]\.W\.BYTE\[0\]\.B\.Q_WIRE\[7\]
*156 SLICE\[0\]\.RAM8\.WORD\[6\]\.W\.BYTE\[0\]\.B\.SEL0
*157 SLICE\[0\]\.RAM8\.WORD\[6\]\.W\.BYTE\[0\]\.B\.SEL0_B
*158 SLICE\[0\]\.RAM8\.WORD\[6\]\.W\.BYTE\[0\]\.B\.WE0_WIRE
*159 SLICE\[0\]\.RAM8\.WORD\[7\]\.W\.BYTE\[0\]\.B\.CLK
*160 SLICE\[0\]\.RAM8\.WORD\[7\]\.W\.BYTE\[0\]\.B\.CLK_B
*161 SLICE\[0\]\.RAM8\.WORD\[7\]\.W\.BYTE\[0\]\.B\.GCLK
*162 SLICE\[0\]\.RAM8\.WORD\[7\]\.W\.BYTE\[0\]\.B\.Q_WIRE\[0\]
*163 SLICE\[0\]\.RAM8\.WORD\[7\]\.W\.BYTE\[0\]\.B\.Q_WIRE\[1\]
*164 SLICE\[0\]\.RAM8\.WORD\[7\]\.W\.BYTE\[0\]\.B\.Q_WIRE\[2\]
*165 SLICE\[0\]\.RAM8\.WORD\[7\]\.W\.BYTE\[0\]\.B\.Q_WIRE\[3\]
*166 SLICE\[0\]\.RAM8\.WORD\[7\]\.W\.BYTE\[0\]\.B\.Q_WIRE\[4\]
*167 SLICE\[0\]\.RAM8\.WORD\[7\]\.W\.BYTE\[0\]\.B\.Q_WIRE\[5\]
*168 SLICE\[0\]\.RAM8\.WORD\[7\]\.W\.BYTE\[0\]\.B\.Q_WIRE\[6\]
*169 SLICE\[0\]\.RAM8\.WORD\[7\]\.W\.BYTE\[0\]\.B\.Q_WIRE\[7\]
*170 SLICE\[0\]\.RAM8\.WORD\[7\]\.W\.BYTE\[0\]\.B\.SEL0
*171 SLICE\[0\]\.RAM8\.WORD\[7\]\.W\.BYTE\[0\]\.B\.SEL0_B
*172 SLICE\[0\]\.RAM8\.WORD\[7\]\.W\.BYTE\[0\]\.B\.WE0_WIRE
*173 SLICE\[1\]\.RAM8\.CLKBUF\.X
*174 SLICE\[1\]\.RAM8\.DEC0\.A_buf\[0\]
*175 SLICE\[1\]\.RAM8\.DEC0\.A_buf\[1\]
*176 SLICE\[1\]\.RAM8\.DEC0\.A_buf\[2\]
*177 SLICE\[1\]\.RAM8\.DEC0\.EN_buf
*178 SLICE\[1\]\.RAM8\.DEC0\.SEL\[0\]
*179 SLICE\[1\]\.RAM8\.DEC0\.SEL\[1\]
*180 SLICE\[1\]\.RAM8\.DEC0\.SEL\[2\]
*181 SLICE\[1\]\.RAM8\.DEC0\.SEL\[3\]
*182 SLICE\[1\]\.RAM8\.DEC0\.SEL\[4\]
*183 SLICE\[1\]\.RAM8\.DEC0\.SEL\[5\]
*184 SLICE\[1\]\.RAM8\.DEC0\.SEL\[6\]
*185 SLICE\[1\]\.RAM8\.DEC0\.SEL\[7\]
*186 SLICE\[1\]\.RAM8\.WE0_buf
*187 SLICE\[1\]\.RAM8\.WORD\[0\]\.W\.BYTE\[0\]\.B\.CLK
*188 SLICE\[1\]\.RAM8\.WORD\[0\]\.W\.BYTE\[0\]\.B\.CLK_B
*189 SLICE\[1\]\.RAM8\.WORD\[0\]\.W\.BYTE\[0\]\.B\.GCLK
*190 SLICE\[1\]\.RAM8\.WORD\[0\]\.W\.BYTE\[0\]\.B\.Q_WIRE\[0\]
*191 SLICE\[1\]\.RAM8\.WORD\[0\]\.W\.BYTE\[0\]\.B\.Q_WIRE\[1\]
*192 SLICE\[1\]\.RAM8\.WORD\[0\]\.W\.BYTE\[0\]\.B\.Q_WIRE\[2\]
*193 SLICE\[1\]\.RAM8\.WORD\[0\]\.W\.BYTE\[0\]\.B\.Q_WIRE\[3\]
*194 SLICE\[1\]\.RAM8\.WORD\[0\]\.W\.BYTE\[0\]\.B\.Q_WIRE\[4\]
*195 SLICE\[1\]\.RAM8\.WORD\[0\]\.W\.BYTE\[0\]\.B\.Q_WIRE\[5\]
*196 SLICE\[1\]\.RAM8\.WORD\[0\]\.W\.BYTE\[0\]\.B\.Q_WIRE\[6\]
*197 SLICE\[1\]\.RAM8\.WORD\[0\]\.W\.BYTE\[0\]\.B\.Q_WIRE\[7\]
*198 SLICE\[1\]\.RAM8\.WORD\[0\]\.W\.BYTE\[0\]\.B\.SEL0
*199 SLICE\[1\]\.RAM8\.WORD\[0\]\.W\.BYTE\[0\]\.B\.SEL0_B
*200 SLICE\[1\]\.RAM8\.WORD\[0\]\.W\.BYTE\[0\]\.B\.WE0_WIRE
*201 SLICE\[1\]\.RAM8\.WORD\[1\]\.W\.BYTE\[0\]\.B\.CLK
*202 SLICE\[1\]\.RAM8\.WORD\[1\]\.W\.BYTE\[0\]\.B\.CLK_B
*203 SLICE\[1\]\.RAM8\.WORD\[1\]\.W\.BYTE\[0\]\.B\.GCLK
*204 SLICE\[1\]\.RAM8\.WORD\[1\]\.W\.BYTE\[0\]\.B\.Q_WIRE\[0\]
*205 SLICE\[1\]\.RAM8\.WORD\[1\]\.W\.BYTE\[0\]\.B\.Q_WIRE\[1\]
*206 SLICE\[1\]\.RAM8\.WORD\[1\]\.W\.BYTE\[0\]\.B\.Q_WIRE\[2\]
*207 SLICE\[1\]\.RAM8\.WORD\[1\]\.W\.BYTE\[0\]\.B\.Q_WIRE\[3\]
*208 SLICE\[1\]\.RAM8\.WORD\[1\]\.W\.BYTE\[0\]\.B\.Q_WIRE\[4\]
*209 SLICE\[1\]\.RAM8\.WORD\[1\]\.W\.BYTE\[0\]\.B\.Q_WIRE\[5\]
*210 SLICE\[1\]\.RAM8\.WORD\[1\]\.W\.BYTE\[0\]\.B\.Q_WIRE\[6\]
*211 SLICE\[1\]\.RAM8\.WORD\[1\]\.W\.BYTE\[0\]\.B\.Q_WIRE\[7\]
*212 SLICE\[1\]\.RAM8\.WORD\[1\]\.W\.BYTE\[0\]\.B\.SEL0
*213 SLICE\[1\]\.RAM8\.WORD\[1\]\.W\.BYTE\[0\]\.B\.SEL0_B
*214 SLICE\[1\]\.RAM8\.WORD\[1\]\.W\.BYTE\[0\]\.B\.WE0_WIRE
*215 SLICE\[1\]\.RAM8\.WORD\[2\]\.W\.BYTE\[0\]\.B\.CLK
*216 SLICE\[1\]\.RAM8\.WORD\[2\]\.W\.BYTE\[0\]\.B\.CLK_B
*217 SLICE\[1\]\.RAM8\.WORD\[2\]\.W\.BYTE\[0\]\.B\.GCLK
*218 SLICE\[1\]\.RAM8\.WORD\[2\]\.W\.BYTE\[0\]\.B\.Q_WIRE\[0\]
*219 SLICE\[1\]\.RAM8\.WORD\[2\]\.W\.BYTE\[0\]\.B\.Q_WIRE\[1\]
*220 SLICE\[1\]\.RAM8\.WORD\[2\]\.W\.BYTE\[0\]\.B\.Q_WIRE\[2\]
*221 SLICE\[1\]\.RAM8\.WORD\[2\]\.W\.BYTE\[0\]\.B\.Q_WIRE\[3\]
*222 SLICE\[1\]\.RAM8\.WORD\[2\]\.W\.BYTE\[0\]\.B\.Q_WIRE\[4\]
*223 SLICE\[1\]\.RAM8\.WORD\[2\]\.W\.BYTE\[0\]\.B\.Q_WIRE\[5\]
*224 SLICE\[1\]\.RAM8\.WORD\[2\]\.W\.BYTE\[0\]\.B\.Q_WIRE\[6\]
*225 SLICE\[1\]\.RAM8\.WORD\[2\]\.W\.BYTE\[0\]\.B\.Q_WIRE\[7\]
*226 SLICE\[1\]\.RAM8\.WORD\[2\]\.W\.BYTE\[0\]\.B\.SEL0
*227 SLICE\[1\]\.RAM8\.WORD\[2\]\.W\.BYTE\[0\]\.B\.SEL0_B
*228 SLICE\[1\]\.RAM8\.WORD\[2\]\.W\.BYTE\[0\]\.B\.WE0_WIRE
*229 SLICE\[1\]\.RAM8\.WORD\[3\]\.W\.BYTE\[0\]\.B\.CLK
*230 SLICE\[1\]\.RAM8\.WORD\[3\]\.W\.BYTE\[0\]\.B\.CLK_B
*231 SLICE\[1\]\.RAM8\.WORD\[3\]\.W\.BYTE\[0\]\.B\.GCLK
*232 SLICE\[1\]\.RAM8\.WORD\[3\]\.W\.BYTE\[0\]\.B\.Q_WIRE\[0\]
*233 SLICE\[1\]\.RAM8\.WORD\[3\]\.W\.BYTE\[0\]\.B\.Q_WIRE\[1\]
*234 SLICE\[1\]\.RAM8\.WORD\[3\]\.W\.BYTE\[0\]\.B\.Q_WIRE\[2\]
*235 SLICE\[1\]\.RAM8\.WORD\[3\]\.W\.BYTE\[0\]\.B\.Q_WIRE\[3\]
*236 SLICE\[1\]\.RAM8\.WORD\[3\]\.W\.BYTE\[0\]\.B\.Q_WIRE\[4\]
*237 SLICE\[1\]\.RAM8\.WORD\[3\]\.W\.BYTE\[0\]\.B\.Q_WIRE\[5\]
*238 SLICE\[1\]\.RAM8\.WORD\[3\]\.W\.BYTE\[0\]\.B\.Q_WIRE\[6\]
*239 SLICE\[1\]\.RAM8\.WORD\[3\]\.W\.BYTE\[0\]\.B\.Q_WIRE\[7\]
*240 SLICE\[1\]\.RAM8\.WORD\[3\]\.W\.BYTE\[0\]\.B\.SEL0
*241 SLICE\[1\]\.RAM8\.WORD\[3\]\.W\.BYTE\[0\]\.B\.SEL0_B
*242 SLICE\[1\]\.RAM8\.WORD\[3\]\.W\.BYTE\[0\]\.B\.WE0_WIRE
*243 SLICE\[1\]\.RAM8\.WORD\[4\]\.W\.BYTE\[0\]\.B\.CLK
*244 SLICE\[1\]\.RAM8\.WORD\[4\]\.W\.BYTE\[0\]\.B\.CLK_B
*245 SLICE\[1\]\.RAM8\.WORD\[4\]\.W\.BYTE\[0\]\.B\.GCLK
*246 SLICE\[1\]\.RAM8\.WORD\[4\]\.W\.BYTE\[0\]\.B\.Q_WIRE\[0\]
*247 SLICE\[1\]\.RAM8\.WORD\[4\]\.W\.BYTE\[0\]\.B\.Q_WIRE\[1\]
*248 SLICE\[1\]\.RAM8\.WORD\[4\]\.W\.BYTE\[0\]\.B\.Q_WIRE\[2\]
*249 SLICE\[1\]\.RAM8\.WORD\[4\]\.W\.BYTE\[0\]\.B\.Q_WIRE\[3\]
*250 SLICE\[1\]\.RAM8\.WORD\[4\]\.W\.BYTE\[0\]\.B\.Q_WIRE\[4\]
*251 SLICE\[1\]\.RAM8\.WORD\[4\]\.W\.BYTE\[0\]\.B\.Q_WIRE\[5\]
*252 SLICE\[1\]\.RAM8\.WORD\[4\]\.W\.BYTE\[0\]\.B\.Q_WIRE\[6\]
*253 SLICE\[1\]\.RAM8\.WORD\[4\]\.W\.BYTE\[0\]\.B\.Q_WIRE\[7\]
*254 SLICE\[1\]\.RAM8\.WORD\[4\]\.W\.BYTE\[0\]\.B\.SEL0
*255 SLICE\[1\]\.RAM8\.WORD\[4\]\.W\.BYTE\[0\]\.B\.SEL0_B
*256 SLICE\[1\]\.RAM8\.WORD\[4\]\.W\.BYTE\[0\]\.B\.WE0_WIRE
*257 SLICE\[1\]\.RAM8\.WORD\[5\]\.W\.BYTE\[0\]\.B\.CLK
*258 SLICE\[1\]\.RAM8\.WORD\[5\]\.W\.BYTE\[0\]\.B\.CLK_B
*259 SLICE\[1\]\.RAM8\.WORD\[5\]\.W\.BYTE\[0\]\.B\.GCLK
*260 SLICE\[1\]\.RAM8\.WORD\[5\]\.W\.BYTE\[0\]\.B\.Q_WIRE\[0\]
*261 SLICE\[1\]\.RAM8\.WORD\[5\]\.W\.BYTE\[0\]\.B\.Q_WIRE\[1\]
*262 SLICE\[1\]\.RAM8\.WORD\[5\]\.W\.BYTE\[0\]\.B\.Q_WIRE\[2\]
*263 SLICE\[1\]\.RAM8\.WORD\[5\]\.W\.BYTE\[0\]\.B\.Q_WIRE\[3\]
*264 SLICE\[1\]\.RAM8\.WORD\[5\]\.W\.BYTE\[0\]\.B\.Q_WIRE\[4\]
*265 SLICE\[1\]\.RAM8\.WORD\[5\]\.W\.BYTE\[0\]\.B\.Q_WIRE\[5\]
*266 SLICE\[1\]\.RAM8\.WORD\[5\]\.W\.BYTE\[0\]\.B\.Q_WIRE\[6\]
*267 SLICE\[1\]\.RAM8\.WORD\[5\]\.W\.BYTE\[0\]\.B\.Q_WIRE\[7\]
*268 SLICE\[1\]\.RAM8\.WORD\[5\]\.W\.BYTE\[0\]\.B\.SEL0
*269 SLICE\[1\]\.RAM8\.WORD\[5\]\.W\.BYTE\[0\]\.B\.SEL0_B
*270 SLICE\[1\]\.RAM8\.WORD\[5\]\.W\.BYTE\[0\]\.B\.WE0_WIRE
*271 SLICE\[1\]\.RAM8\.WORD\[6\]\.W\.BYTE\[0\]\.B\.CLK
*272 SLICE\[1\]\.RAM8\.WORD\[6\]\.W\.BYTE\[0\]\.B\.CLK_B
*273 SLICE\[1\]\.RAM8\.WORD\[6\]\.W\.BYTE\[0\]\.B\.GCLK
*274 SLICE\[1\]\.RAM8\.WORD\[6\]\.W\.BYTE\[0\]\.B\.Q_WIRE\[0\]
*275 SLICE\[1\]\.RAM8\.WORD\[6\]\.W\.BYTE\[0\]\.B\.Q_WIRE\[1\]
*276 SLICE\[1\]\.RAM8\.WORD\[6\]\.W\.BYTE\[0\]\.B\.Q_WIRE\[2\]
*277 SLICE\[1\]\.RAM8\.WORD\[6\]\.W\.BYTE\[0\]\.B\.Q_WIRE\[3\]
*278 SLICE\[1\]\.RAM8\.WORD\[6\]\.W\.BYTE\[0\]\.B\.Q_WIRE\[4\]
*279 SLICE\[1\]\.RAM8\.WORD\[6\]\.W\.BYTE\[0\]\.B\.Q_WIRE\[5\]
*280 SLICE\[1\]\.RAM8\.WORD\[6\]\.W\.BYTE\[0\]\.B\.Q_WIRE\[6\]
*281 SLICE\[1\]\.RAM8\.WORD\[6\]\.W\.BYTE\[0\]\.B\.Q_WIRE\[7\]
*282 SLICE\[1\]\.RAM8\.WORD\[6\]\.W\.BYTE\[0\]\.B\.SEL0
*283 SLICE\[1\]\.RAM8\.WORD\[6\]\.W\.BYTE\[0\]\.B\.SEL0_B
*284 SLICE\[1\]\.RAM8\.WORD\[6\]\.W\.BYTE\[0\]\.B\.WE0_WIRE
*285 SLICE\[1\]\.RAM8\.WORD\[7\]\.W\.BYTE\[0\]\.B\.CLK
*286 SLICE\[1\]\.RAM8\.WORD\[7\]\.W\.BYTE\[0\]\.B\.CLK_B
*287 SLICE\[1\]\.RAM8\.WORD\[7\]\.W\.BYTE\[0\]\.B\.GCLK
*288 SLICE\[1\]\.RAM8\.WORD\[7\]\.W\.BYTE\[0\]\.B\.Q_WIRE\[0\]
*289 SLICE\[1\]\.RAM8\.WORD\[7\]\.W\.BYTE\[0\]\.B\.Q_WIRE\[1\]
*290 SLICE\[1\]\.RAM8\.WORD\[7\]\.W\.BYTE\[0\]\.B\.Q_WIRE\[2\]
*291 SLICE\[1\]\.RAM8\.WORD\[7\]\.W\.BYTE\[0\]\.B\.Q_WIRE\[3\]
*292 SLICE\[1\]\.RAM8\.WORD\[7\]\.W\.BYTE\[0\]\.B\.Q_WIRE\[4\]
*293 SLICE\[1\]\.RAM8\.WORD\[7\]\.W\.BYTE\[0\]\.B\.Q_WIRE\[5\]
*294 SLICE\[1\]\.RAM8\.WORD\[7\]\.W\.BYTE\[0\]\.B\.Q_WIRE\[6\]
*295 SLICE\[1\]\.RAM8\.WORD\[7\]\.W\.BYTE\[0\]\.B\.Q_WIRE\[7\]
*296 SLICE\[1\]\.RAM8\.WORD\[7\]\.W\.BYTE\[0\]\.B\.SEL0
*297 SLICE\[1\]\.RAM8\.WORD\[7\]\.W\.BYTE\[0\]\.B\.SEL0_B
*298 SLICE\[1\]\.RAM8\.WORD\[7\]\.W\.BYTE\[0\]\.B\.WE0_WIRE
*299 A0BUF\[0\]\.__cell__
*300 A0BUF\[1\]\.__cell__
*301 A0BUF\[2\]\.__cell__
*302 A0BUF\[3\]\.__cell__
*303 BYTE\[0\]\.FLOATBUF0\[0\]\.__cell__
*304 BYTE\[0\]\.FLOATBUF0\[1\]\.__cell__
*305 BYTE\[0\]\.FLOATBUF0\[2\]\.__cell__
*306 BYTE\[0\]\.FLOATBUF0\[3\]\.__cell__
*307 BYTE\[0\]\.FLOATBUF0\[4\]\.__cell__
*308 BYTE\[0\]\.FLOATBUF0\[5\]\.__cell__
*309 BYTE\[0\]\.FLOATBUF0\[6\]\.__cell__
*310 BYTE\[0\]\.FLOATBUF0\[7\]\.__cell__
*311 CLKBUF\.__cell__
*312 DEC0\.AND0
*313 DEC0\.AND1
*314 DIODE_A0\[0\]\.__cell__
*315 DIODE_A0\[1\]\.__cell__
*316 DIODE_A0\[2\]\.__cell__
*317 DIODE_A0\[3\]\.__cell__
*318 DIODE_CLK\.__cell__
*319 Do0_REG\.Do_CLKBUF\[0\]
*320 Do0_REG\.OUTREG_BYTE\[0\]\.DIODE\[0\]
*321 Do0_REG\.OUTREG_BYTE\[0\]\.DIODE\[1\]
*322 Do0_REG\.OUTREG_BYTE\[0\]\.DIODE\[2\]
*323 Do0_REG\.OUTREG_BYTE\[0\]\.DIODE\[3\]
*324 Do0_REG\.OUTREG_BYTE\[0\]\.DIODE\[4\]
*325 Do0_REG\.OUTREG_BYTE\[0\]\.DIODE\[5\]
*326 Do0_REG\.OUTREG_BYTE\[0\]\.DIODE\[6\]
*327 Do0_REG\.OUTREG_BYTE\[0\]\.DIODE\[7\]
*328 Do0_REG\.OUTREG_BYTE\[0\]\.Do_FF\[0\]
*329 Do0_REG\.OUTREG_BYTE\[0\]\.Do_FF\[1\]
*330 Do0_REG\.OUTREG_BYTE\[0\]\.Do_FF\[2\]
*331 Do0_REG\.OUTREG_BYTE\[0\]\.Do_FF\[3\]
*332 Do0_REG\.OUTREG_BYTE\[0\]\.Do_FF\[4\]
*333 Do0_REG\.OUTREG_BYTE\[0\]\.Do_FF\[5\]
*334 Do0_REG\.OUTREG_BYTE\[0\]\.Do_FF\[6\]
*335 Do0_REG\.OUTREG_BYTE\[0\]\.Do_FF\[7\]
*336 Do0_REG\.Root_CLKBUF
*337 EN0BUF\.__cell__
*338 FBUFENBUF0\[0\]\.__cell__
*339 SLICE\[0\]\.RAM8\.CLKBUF\.__cell__
*340 SLICE\[0\]\.RAM8\.DEC0\.ABUF\[0\]
*341 SLICE\[0\]\.RAM8\.DEC0\.ABUF\[1\]
*342 SLICE\[0\]\.RAM8\.DEC0\.ABUF\[2\]
*343 SLICE\[0\]\.RAM8\.DEC0\.AND0
*344 SLICE\[0\]\.RAM8\.DEC0\.AND1
*345 SLICE\[0\]\.RAM8\.DEC0\.AND2
*346 SLICE\[0\]\.RAM8\.DEC0\.AND3
*347 SLICE\[0\]\.RAM8\.DEC0\.AND4
*348 SLICE\[0\]\.RAM8\.DEC0\.AND5
*349 SLICE\[0\]\.RAM8\.DEC0\.AND6
*350 SLICE\[0\]\.RAM8\.DEC0\.AND7
*351 SLICE\[0\]\.RAM8\.DEC0\.ENBUF
*352 SLICE\[0\]\.RAM8\.WEBUF\[0\]\.__cell__
*353 SLICE\[0\]\.RAM8\.WORD\[0\]\.W\.BYTE\[0\]\.B\.BIT\[0\]\.OBUF0
*354 SLICE\[0\]\.RAM8\.WORD\[0\]\.W\.BYTE\[0\]\.B\.BIT\[0\]\.genblk1\.STORAGE
*355 SLICE\[0\]\.RAM8\.WORD\[0\]\.W\.BYTE\[0\]\.B\.BIT\[1\]\.OBUF0
*356 SLICE\[0\]\.RAM8\.WORD\[0\]\.W\.BYTE\[0\]\.B\.BIT\[1\]\.genblk1\.STORAGE
*357 SLICE\[0\]\.RAM8\.WORD\[0\]\.W\.BYTE\[0\]\.B\.BIT\[2\]\.OBUF0
*358 SLICE\[0\]\.RAM8\.WORD\[0\]\.W\.BYTE\[0\]\.B\.BIT\[2\]\.genblk1\.STORAGE
*359 SLICE\[0\]\.RAM8\.WORD\[0\]\.W\.BYTE\[0\]\.B\.BIT\[3\]\.OBUF0
*360 SLICE\[0\]\.RAM8\.WORD\[0\]\.W\.BYTE\[0\]\.B\.BIT\[3\]\.genblk1\.STORAGE
*361 SLICE\[0\]\.RAM8\.WORD\[0\]\.W\.BYTE\[0\]\.B\.BIT\[4\]\.OBUF0
*362 SLICE\[0\]\.RAM8\.WORD\[0\]\.W\.BYTE\[0\]\.B\.BIT\[4\]\.genblk1\.STORAGE
*363 SLICE\[0\]\.RAM8\.WORD\[0\]\.W\.BYTE\[0\]\.B\.BIT\[5\]\.OBUF0
*364 SLICE\[0\]\.RAM8\.WORD\[0\]\.W\.BYTE\[0\]\.B\.BIT\[5\]\.genblk1\.STORAGE
*365 SLICE\[0\]\.RAM8\.WORD\[0\]\.W\.BYTE\[0\]\.B\.BIT\[6\]\.OBUF0
*366 SLICE\[0\]\.RAM8\.WORD\[0\]\.W\.BYTE\[0\]\.B\.BIT\[6\]\.genblk1\.STORAGE
*367 SLICE\[0\]\.RAM8\.WORD\[0\]\.W\.BYTE\[0\]\.B\.BIT\[7\]\.OBUF0
*368 SLICE\[0\]\.RAM8\.WORD\[0\]\.W\.BYTE\[0\]\.B\.BIT\[7\]\.genblk1\.STORAGE
*369 SLICE\[0\]\.RAM8\.WORD\[0\]\.W\.BYTE\[0\]\.B\.CGAND
*370 SLICE\[0\]\.RAM8\.WORD\[0\]\.W\.BYTE\[0\]\.B\.DIODE_CLK
*371 SLICE\[0\]\.RAM8\.WORD\[0\]\.W\.BYTE\[0\]\.B\.SEL0INV
*372 SLICE\[0\]\.RAM8\.WORD\[0\]\.W\.BYTE\[0\]\.B\.genblk1\.CG
*373 SLICE\[0\]\.RAM8\.WORD\[0\]\.W\.BYTE\[0\]\.B\.genblk1\.CLKINV
*374 SLICE\[0\]\.RAM8\.WORD\[0\]\.W\.CLKBUF
*375 SLICE\[0\]\.RAM8\.WORD\[0\]\.W\.SEL0BUF
*376 SLICE\[0\]\.RAM8\.WORD\[1\]\.W\.BYTE\[0\]\.B\.BIT\[0\]\.OBUF0
*377 SLICE\[0\]\.RAM8\.WORD\[1\]\.W\.BYTE\[0\]\.B\.BIT\[0\]\.genblk1\.STORAGE
*378 SLICE\[0\]\.RAM8\.WORD\[1\]\.W\.BYTE\[0\]\.B\.BIT\[1\]\.OBUF0
*379 SLICE\[0\]\.RAM8\.WORD\[1\]\.W\.BYTE\[0\]\.B\.BIT\[1\]\.genblk1\.STORAGE
*380 SLICE\[0\]\.RAM8\.WORD\[1\]\.W\.BYTE\[0\]\.B\.BIT\[2\]\.OBUF0
*381 SLICE\[0\]\.RAM8\.WORD\[1\]\.W\.BYTE\[0\]\.B\.BIT\[2\]\.genblk1\.STORAGE
*382 SLICE\[0\]\.RAM8\.WORD\[1\]\.W\.BYTE\[0\]\.B\.BIT\[3\]\.OBUF0
*383 SLICE\[0\]\.RAM8\.WORD\[1\]\.W\.BYTE\[0\]\.B\.BIT\[3\]\.genblk1\.STORAGE
*384 SLICE\[0\]\.RAM8\.WORD\[1\]\.W\.BYTE\[0\]\.B\.BIT\[4\]\.OBUF0
*385 SLICE\[0\]\.RAM8\.WORD\[1\]\.W\.BYTE\[0\]\.B\.BIT\[4\]\.genblk1\.STORAGE
*386 SLICE\[0\]\.RAM8\.WORD\[1\]\.W\.BYTE\[0\]\.B\.BIT\[5\]\.OBUF0
*387 SLICE\[0\]\.RAM8\.WORD\[1\]\.W\.BYTE\[0\]\.B\.BIT\[5\]\.genblk1\.STORAGE
*388 SLICE\[0\]\.RAM8\.WORD\[1\]\.W\.BYTE\[0\]\.B\.BIT\[6\]\.OBUF0
*389 SLICE\[0\]\.RAM8\.WORD\[1\]\.W\.BYTE\[0\]\.B\.BIT\[6\]\.genblk1\.STORAGE
*390 SLICE\[0\]\.RAM8\.WORD\[1\]\.W\.BYTE\[0\]\.B\.BIT\[7\]\.OBUF0
*391 SLICE\[0\]\.RAM8\.WORD\[1\]\.W\.BYTE\[0\]\.B\.BIT\[7\]\.genblk1\.STORAGE
*392 SLICE\[0\]\.RAM8\.WORD\[1\]\.W\.BYTE\[0\]\.B\.CGAND
*393 SLICE\[0\]\.RAM8\.WORD\[1\]\.W\.BYTE\[0\]\.B\.DIODE_CLK
*394 SLICE\[0\]\.RAM8\.WORD\[1\]\.W\.BYTE\[0\]\.B\.SEL0INV
*395 SLICE\[0\]\.RAM8\.WORD\[1\]\.W\.BYTE\[0\]\.B\.genblk1\.CG
*396 SLICE\[0\]\.RAM8\.WORD\[1\]\.W\.BYTE\[0\]\.B\.genblk1\.CLKINV
*397 SLICE\[0\]\.RAM8\.WORD\[1\]\.W\.CLKBUF
*398 SLICE\[0\]\.RAM8\.WORD\[1\]\.W\.SEL0BUF
*399 SLICE\[0\]\.RAM8\.WORD\[2\]\.W\.BYTE\[0\]\.B\.BIT\[0\]\.OBUF0
*400 SLICE\[0\]\.RAM8\.WORD\[2\]\.W\.BYTE\[0\]\.B\.BIT\[0\]\.genblk1\.STORAGE
*401 SLICE\[0\]\.RAM8\.WORD\[2\]\.W\.BYTE\[0\]\.B\.BIT\[1\]\.OBUF0
*402 SLICE\[0\]\.RAM8\.WORD\[2\]\.W\.BYTE\[0\]\.B\.BIT\[1\]\.genblk1\.STORAGE
*403 SLICE\[0\]\.RAM8\.WORD\[2\]\.W\.BYTE\[0\]\.B\.BIT\[2\]\.OBUF0
*404 SLICE\[0\]\.RAM8\.WORD\[2\]\.W\.BYTE\[0\]\.B\.BIT\[2\]\.genblk1\.STORAGE
*405 SLICE\[0\]\.RAM8\.WORD\[2\]\.W\.BYTE\[0\]\.B\.BIT\[3\]\.OBUF0
*406 SLICE\[0\]\.RAM8\.WORD\[2\]\.W\.BYTE\[0\]\.B\.BIT\[3\]\.genblk1\.STORAGE
*407 SLICE\[0\]\.RAM8\.WORD\[2\]\.W\.BYTE\[0\]\.B\.BIT\[4\]\.OBUF0
*408 SLICE\[0\]\.RAM8\.WORD\[2\]\.W\.BYTE\[0\]\.B\.BIT\[4\]\.genblk1\.STORAGE
*409 SLICE\[0\]\.RAM8\.WORD\[2\]\.W\.BYTE\[0\]\.B\.BIT\[5\]\.OBUF0
*410 SLICE\[0\]\.RAM8\.WORD\[2\]\.W\.BYTE\[0\]\.B\.BIT\[5\]\.genblk1\.STORAGE
*411 SLICE\[0\]\.RAM8\.WORD\[2\]\.W\.BYTE\[0\]\.B\.BIT\[6\]\.OBUF0
*412 SLICE\[0\]\.RAM8\.WORD\[2\]\.W\.BYTE\[0\]\.B\.BIT\[6\]\.genblk1\.STORAGE
*413 SLICE\[0\]\.RAM8\.WORD\[2\]\.W\.BYTE\[0\]\.B\.BIT\[7\]\.OBUF0
*414 SLICE\[0\]\.RAM8\.WORD\[2\]\.W\.BYTE\[0\]\.B\.BIT\[7\]\.genblk1\.STORAGE
*415 SLICE\[0\]\.RAM8\.WORD\[2\]\.W\.BYTE\[0\]\.B\.CGAND
*416 SLICE\[0\]\.RAM8\.WORD\[2\]\.W\.BYTE\[0\]\.B\.DIODE_CLK
*417 SLICE\[0\]\.RAM8\.WORD\[2\]\.W\.BYTE\[0\]\.B\.SEL0INV
*418 SLICE\[0\]\.RAM8\.WORD\[2\]\.W\.BYTE\[0\]\.B\.genblk1\.CG
*419 SLICE\[0\]\.RAM8\.WORD\[2\]\.W\.BYTE\[0\]\.B\.genblk1\.CLKINV
*420 SLICE\[0\]\.RAM8\.WORD\[2\]\.W\.CLKBUF
*421 SLICE\[0\]\.RAM8\.WORD\[2\]\.W\.SEL0BUF
*422 SLICE\[0\]\.RAM8\.WORD\[3\]\.W\.BYTE\[0\]\.B\.BIT\[0\]\.OBUF0
*423 SLICE\[0\]\.RAM8\.WORD\[3\]\.W\.BYTE\[0\]\.B\.BIT\[0\]\.genblk1\.STORAGE
*424 SLICE\[0\]\.RAM8\.WORD\[3\]\.W\.BYTE\[0\]\.B\.BIT\[1\]\.OBUF0
*425 SLICE\[0\]\.RAM8\.WORD\[3\]\.W\.BYTE\[0\]\.B\.BIT\[1\]\.genblk1\.STORAGE
*426 SLICE\[0\]\.RAM8\.WORD\[3\]\.W\.BYTE\[0\]\.B\.BIT\[2\]\.OBUF0
*427 SLICE\[0\]\.RAM8\.WORD\[3\]\.W\.BYTE\[0\]\.B\.BIT\[2\]\.genblk1\.STORAGE
*428 SLICE\[0\]\.RAM8\.WORD\[3\]\.W\.BYTE\[0\]\.B\.BIT\[3\]\.OBUF0
*429 SLICE\[0\]\.RAM8\.WORD\[3\]\.W\.BYTE\[0\]\.B\.BIT\[3\]\.genblk1\.STORAGE
*430 SLICE\[0\]\.RAM8\.WORD\[3\]\.W\.BYTE\[0\]\.B\.BIT\[4\]\.OBUF0
*431 SLICE\[0\]\.RAM8\.WORD\[3\]\.W\.BYTE\[0\]\.B\.BIT\[4\]\.genblk1\.STORAGE
*432 SLICE\[0\]\.RAM8\.WORD\[3\]\.W\.BYTE\[0\]\.B\.BIT\[5\]\.OBUF0
*433 SLICE\[0\]\.RAM8\.WORD\[3\]\.W\.BYTE\[0\]\.B\.BIT\[5\]\.genblk1\.STORAGE
*434 SLICE\[0\]\.RAM8\.WORD\[3\]\.W\.BYTE\[0\]\.B\.BIT\[6\]\.OBUF0
*435 SLICE\[0\]\.RAM8\.WORD\[3\]\.W\.BYTE\[0\]\.B\.BIT\[6\]\.genblk1\.STORAGE
*436 SLICE\[0\]\.RAM8\.WORD\[3\]\.W\.BYTE\[0\]\.B\.BIT\[7\]\.OBUF0
*437 SLICE\[0\]\.RAM8\.WORD\[3\]\.W\.BYTE\[0\]\.B\.BIT\[7\]\.genblk1\.STORAGE
*438 SLICE\[0\]\.RAM8\.WORD\[3\]\.W\.BYTE\[0\]\.B\.CGAND
*439 SLICE\[0\]\.RAM8\.WORD\[3\]\.W\.BYTE\[0\]\.B\.DIODE_CLK
*440 SLICE\[0\]\.RAM8\.WORD\[3\]\.W\.BYTE\[0\]\.B\.SEL0INV
*441 SLICE\[0\]\.RAM8\.WORD\[3\]\.W\.BYTE\[0\]\.B\.genblk1\.CG
*442 SLICE\[0\]\.RAM8\.WORD\[3\]\.W\.BYTE\[0\]\.B\.genblk1\.CLKINV
*443 SLICE\[0\]\.RAM8\.WORD\[3\]\.W\.CLKBUF
*444 SLICE\[0\]\.RAM8\.WORD\[3\]\.W\.SEL0BUF
*445 SLICE\[0\]\.RAM8\.WORD\[4\]\.W\.BYTE\[0\]\.B\.BIT\[0\]\.OBUF0
*446 SLICE\[0\]\.RAM8\.WORD\[4\]\.W\.BYTE\[0\]\.B\.BIT\[0\]\.genblk1\.STORAGE
*447 SLICE\[0\]\.RAM8\.WORD\[4\]\.W\.BYTE\[0\]\.B\.BIT\[1\]\.OBUF0
*448 SLICE\[0\]\.RAM8\.WORD\[4\]\.W\.BYTE\[0\]\.B\.BIT\[1\]\.genblk1\.STORAGE
*449 SLICE\[0\]\.RAM8\.WORD\[4\]\.W\.BYTE\[0\]\.B\.BIT\[2\]\.OBUF0
*450 SLICE\[0\]\.RAM8\.WORD\[4\]\.W\.BYTE\[0\]\.B\.BIT\[2\]\.genblk1\.STORAGE
*451 SLICE\[0\]\.RAM8\.WORD\[4\]\.W\.BYTE\[0\]\.B\.BIT\[3\]\.OBUF0
*452 SLICE\[0\]\.RAM8\.WORD\[4\]\.W\.BYTE\[0\]\.B\.BIT\[3\]\.genblk1\.STORAGE
*453 SLICE\[0\]\.RAM8\.WORD\[4\]\.W\.BYTE\[0\]\.B\.BIT\[4\]\.OBUF0
*454 SLICE\[0\]\.RAM8\.WORD\[4\]\.W\.BYTE\[0\]\.B\.BIT\[4\]\.genblk1\.STORAGE
*455 SLICE\[0\]\.RAM8\.WORD\[4\]\.W\.BYTE\[0\]\.B\.BIT\[5\]\.OBUF0
*456 SLICE\[0\]\.RAM8\.WORD\[4\]\.W\.BYTE\[0\]\.B\.BIT\[5\]\.genblk1\.STORAGE
*457 SLICE\[0\]\.RAM8\.WORD\[4\]\.W\.BYTE\[0\]\.B\.BIT\[6\]\.OBUF0
*458 SLICE\[0\]\.RAM8\.WORD\[4\]\.W\.BYTE\[0\]\.B\.BIT\[6\]\.genblk1\.STORAGE
*459 SLICE\[0\]\.RAM8\.WORD\[4\]\.W\.BYTE\[0\]\.B\.BIT\[7\]\.OBUF0
*460 SLICE\[0\]\.RAM8\.WORD\[4\]\.W\.BYTE\[0\]\.B\.BIT\[7\]\.genblk1\.STORAGE
*461 SLICE\[0\]\.RAM8\.WORD\[4\]\.W\.BYTE\[0\]\.B\.CGAND
*462 SLICE\[0\]\.RAM8\.WORD\[4\]\.W\.BYTE\[0\]\.B\.DIODE_CLK
*463 SLICE\[0\]\.RAM8\.WORD\[4\]\.W\.BYTE\[0\]\.B\.SEL0INV
*464 SLICE\[0\]\.RAM8\.WORD\[4\]\.W\.BYTE\[0\]\.B\.genblk1\.CG
*465 SLICE\[0\]\.RAM8\.WORD\[4\]\.W\.BYTE\[0\]\.B\.genblk1\.CLKINV
*466 SLICE\[0\]\.RAM8\.WORD\[4\]\.W\.CLKBUF
*467 SLICE\[0\]\.RAM8\.WORD\[4\]\.W\.SEL0BUF
*468 SLICE\[0\]\.RAM8\.WORD\[5\]\.W\.BYTE\[0\]\.B\.BIT\[0\]\.OBUF0
*469 SLICE\[0\]\.RAM8\.WORD\[5\]\.W\.BYTE\[0\]\.B\.BIT\[0\]\.genblk1\.STORAGE
*470 SLICE\[0\]\.RAM8\.WORD\[5\]\.W\.BYTE\[0\]\.B\.BIT\[1\]\.OBUF0
*471 SLICE\[0\]\.RAM8\.WORD\[5\]\.W\.BYTE\[0\]\.B\.BIT\[1\]\.genblk1\.STORAGE
*472 SLICE\[0\]\.RAM8\.WORD\[5\]\.W\.BYTE\[0\]\.B\.BIT\[2\]\.OBUF0
*473 SLICE\[0\]\.RAM8\.WORD\[5\]\.W\.BYTE\[0\]\.B\.BIT\[2\]\.genblk1\.STORAGE
*474 SLICE\[0\]\.RAM8\.WORD\[5\]\.W\.BYTE\[0\]\.B\.BIT\[3\]\.OBUF0
*475 SLICE\[0\]\.RAM8\.WORD\[5\]\.W\.BYTE\[0\]\.B\.BIT\[3\]\.genblk1\.STORAGE
*476 SLICE\[0\]\.RAM8\.WORD\[5\]\.W\.BYTE\[0\]\.B\.BIT\[4\]\.OBUF0
*477 SLICE\[0\]\.RAM8\.WORD\[5\]\.W\.BYTE\[0\]\.B\.BIT\[4\]\.genblk1\.STORAGE
*478 SLICE\[0\]\.RAM8\.WORD\[5\]\.W\.BYTE\[0\]\.B\.BIT\[5\]\.OBUF0
*479 SLICE\[0\]\.RAM8\.WORD\[5\]\.W\.BYTE\[0\]\.B\.BIT\[5\]\.genblk1\.STORAGE
*480 SLICE\[0\]\.RAM8\.WORD\[5\]\.W\.BYTE\[0\]\.B\.BIT\[6\]\.OBUF0
*481 SLICE\[0\]\.RAM8\.WORD\[5\]\.W\.BYTE\[0\]\.B\.BIT\[6\]\.genblk1\.STORAGE
*482 SLICE\[0\]\.RAM8\.WORD\[5\]\.W\.BYTE\[0\]\.B\.BIT\[7\]\.OBUF0
*483 SLICE\[0\]\.RAM8\.WORD\[5\]\.W\.BYTE\[0\]\.B\.BIT\[7\]\.genblk1\.STORAGE
*484 SLICE\[0\]\.RAM8\.WORD\[5\]\.W\.BYTE\[0\]\.B\.CGAND
*485 SLICE\[0\]\.RAM8\.WORD\[5\]\.W\.BYTE\[0\]\.B\.DIODE_CLK
*486 SLICE\[0\]\.RAM8\.WORD\[5\]\.W\.BYTE\[0\]\.B\.SEL0INV
*487 SLICE\[0\]\.RAM8\.WORD\[5\]\.W\.BYTE\[0\]\.B\.genblk1\.CG
*488 SLICE\[0\]\.RAM8\.WORD\[5\]\.W\.BYTE\[0\]\.B\.genblk1\.CLKINV
*489 SLICE\[0\]\.RAM8\.WORD\[5\]\.W\.CLKBUF
*490 SLICE\[0\]\.RAM8\.WORD\[5\]\.W\.SEL0BUF
*491 SLICE\[0\]\.RAM8\.WORD\[6\]\.W\.BYTE\[0\]\.B\.BIT\[0\]\.OBUF0
*492 SLICE\[0\]\.RAM8\.WORD\[6\]\.W\.BYTE\[0\]\.B\.BIT\[0\]\.genblk1\.STORAGE
*493 SLICE\[0\]\.RAM8\.WORD\[6\]\.W\.BYTE\[0\]\.B\.BIT\[1\]\.OBUF0
*494 SLICE\[0\]\.RAM8\.WORD\[6\]\.W\.BYTE\[0\]\.B\.BIT\[1\]\.genblk1\.STORAGE
*495 SLICE\[0\]\.RAM8\.WORD\[6\]\.W\.BYTE\[0\]\.B\.BIT\[2\]\.OBUF0
*496 SLICE\[0\]\.RAM8\.WORD\[6\]\.W\.BYTE\[0\]\.B\.BIT\[2\]\.genblk1\.STORAGE
*497 SLICE\[0\]\.RAM8\.WORD\[6\]\.W\.BYTE\[0\]\.B\.BIT\[3\]\.OBUF0
*498 SLICE\[0\]\.RAM8\.WORD\[6\]\.W\.BYTE\[0\]\.B\.BIT\[3\]\.genblk1\.STORAGE
*499 SLICE\[0\]\.RAM8\.WORD\[6\]\.W\.BYTE\[0\]\.B\.BIT\[4\]\.OBUF0
*500 SLICE\[0\]\.RAM8\.WORD\[6\]\.W\.BYTE\[0\]\.B\.BIT\[4\]\.genblk1\.STORAGE
*501 SLICE\[0\]\.RAM8\.WORD\[6\]\.W\.BYTE\[0\]\.B\.BIT\[5\]\.OBUF0
*502 SLICE\[0\]\.RAM8\.WORD\[6\]\.W\.BYTE\[0\]\.B\.BIT\[5\]\.genblk1\.STORAGE
*503 SLICE\[0\]\.RAM8\.WORD\[6\]\.W\.BYTE\[0\]\.B\.BIT\[6\]\.OBUF0
*504 SLICE\[0\]\.RAM8\.WORD\[6\]\.W\.BYTE\[0\]\.B\.BIT\[6\]\.genblk1\.STORAGE
*505 SLICE\[0\]\.RAM8\.WORD\[6\]\.W\.BYTE\[0\]\.B\.BIT\[7\]\.OBUF0
*506 SLICE\[0\]\.RAM8\.WORD\[6\]\.W\.BYTE\[0\]\.B\.BIT\[7\]\.genblk1\.STORAGE
*507 SLICE\[0\]\.RAM8\.WORD\[6\]\.W\.BYTE\[0\]\.B\.CGAND
*508 SLICE\[0\]\.RAM8\.WORD\[6\]\.W\.BYTE\[0\]\.B\.DIODE_CLK
*509 SLICE\[0\]\.RAM8\.WORD\[6\]\.W\.BYTE\[0\]\.B\.SEL0INV
*510 SLICE\[0\]\.RAM8\.WORD\[6\]\.W\.BYTE\[0\]\.B\.genblk1\.CG
*511 SLICE\[0\]\.RAM8\.WORD\[6\]\.W\.BYTE\[0\]\.B\.genblk1\.CLKINV
*512 SLICE\[0\]\.RAM8\.WORD\[6\]\.W\.CLKBUF
*513 SLICE\[0\]\.RAM8\.WORD\[6\]\.W\.SEL0BUF
*514 SLICE\[0\]\.RAM8\.WORD\[7\]\.W\.BYTE\[0\]\.B\.BIT\[0\]\.OBUF0
*515 SLICE\[0\]\.RAM8\.WORD\[7\]\.W\.BYTE\[0\]\.B\.BIT\[0\]\.genblk1\.STORAGE
*516 SLICE\[0\]\.RAM8\.WORD\[7\]\.W\.BYTE\[0\]\.B\.BIT\[1\]\.OBUF0
*517 SLICE\[0\]\.RAM8\.WORD\[7\]\.W\.BYTE\[0\]\.B\.BIT\[1\]\.genblk1\.STORAGE
*518 SLICE\[0\]\.RAM8\.WORD\[7\]\.W\.BYTE\[0\]\.B\.BIT\[2\]\.OBUF0
*519 SLICE\[0\]\.RAM8\.WORD\[7\]\.W\.BYTE\[0\]\.B\.BIT\[2\]\.genblk1\.STORAGE
*520 SLICE\[0\]\.RAM8\.WORD\[7\]\.W\.BYTE\[0\]\.B\.BIT\[3\]\.OBUF0
*521 SLICE\[0\]\.RAM8\.WORD\[7\]\.W\.BYTE\[0\]\.B\.BIT\[3\]\.genblk1\.STORAGE
*522 SLICE\[0\]\.RAM8\.WORD\[7\]\.W\.BYTE\[0\]\.B\.BIT\[4\]\.OBUF0
*523 SLICE\[0\]\.RAM8\.WORD\[7\]\.W\.BYTE\[0\]\.B\.BIT\[4\]\.genblk1\.STORAGE
*524 SLICE\[0\]\.RAM8\.WORD\[7\]\.W\.BYTE\[0\]\.B\.BIT\[5\]\.OBUF0
*525 SLICE\[0\]\.RAM8\.WORD\[7\]\.W\.BYTE\[0\]\.B\.BIT\[5\]\.genblk1\.STORAGE
*526 SLICE\[0\]\.RAM8\.WORD\[7\]\.W\.BYTE\[0\]\.B\.BIT\[6\]\.OBUF0
*527 SLICE\[0\]\.RAM8\.WORD\[7\]\.W\.BYTE\[0\]\.B\.BIT\[6\]\.genblk1\.STORAGE
*528 SLICE\[0\]\.RAM8\.WORD\[7\]\.W\.BYTE\[0\]\.B\.BIT\[7\]\.OBUF0
*529 SLICE\[0\]\.RAM8\.WORD\[7\]\.W\.BYTE\[0\]\.B\.BIT\[7\]\.genblk1\.STORAGE
*530 SLICE\[0\]\.RAM8\.WORD\[7\]\.W\.BYTE\[0\]\.B\.CGAND
*531 SLICE\[0\]\.RAM8\.WORD\[7\]\.W\.BYTE\[0\]\.B\.DIODE_CLK
*532 SLICE\[0\]\.RAM8\.WORD\[7\]\.W\.BYTE\[0\]\.B\.SEL0INV
*533 SLICE\[0\]\.RAM8\.WORD\[7\]\.W\.BYTE\[0\]\.B\.genblk1\.CG
*534 SLICE\[0\]\.RAM8\.WORD\[7\]\.W\.BYTE\[0\]\.B\.genblk1\.CLKINV